<routes>
    <vType id="car" accel="2.0" decel="4.5" sigma="0.5" length="5.0" maxSpeed="20"/>
    <vType id="bus" accel="1.2" decel="4.0" sigma="0.5" length="12.0" maxSpeed="15"/>
</routes>