<configuration>
  <input>
    <net-file value="city_with_tl.net.xml"/>
    <route-files value="../routes/city.rou.xml"/>
  </input>
  <time>
    <begin value="0"/>
    <end value="3600"/>
    <step-length value="1"/>
  </time>
</configuration>